flow-decomposition/src/test/resources/com/powsybl/flowdecomposition/customGlskProviderTestNetwork.uct
##C 2007.05.01
This is a test network with only two branches.
Each branch is linking a generator with a  central load.
Used to validate:
- Basic network importer
- XNEC automatic selection
- GLSK automatic generation
- Zone automatic extraction
##N
##ZFR
FGEN1 11 FGEN1        0 2 400.00 0.00000 0.00000 -200.00 0.00000 1000.00 -1000.0 1000.00 -1000.0
FINTER11 FINTER11     0 0 400.00 0.00000 0.00000
FGEN2 11 FGEN2        0 2 400.00 100.000 0.00000 0.00000 0.00000 1000.00 -1000.0 1000.00 -1000.0
##ZBE
BGEN  11 BGEN1        0 3 400.00 200.000 0.00000 -100.00 0.00000 1000.00 -1000.0 1000.00 -1000.0
##L
FGEN1 11 BGEN  11 1 0 1.0000 0.0500 0.000000    480 LINE
FGEN2 11 FINTER11 1 0 1.0000 0.0500 0.000000    480 LINE
FINTER11 BGEN  11 1 0 1.0000 0.0500 0.000000    480 LINE
